@<TRIPOS>MOLECULE
ligA
35 36 1                 
SMALL
USER_CHARGES
@<TRIPOS>ATOM
1	   N	50.790	-8.159	-20.296	N.2	1	LIG501	0.000	
2	   N	49.720	-7.826	-21.029	N.2	1	LIG501	0.000	
3	   N	46.245	-5.829	-17.149	N.pl3	1	LIG501	0.000	
4	   C	51.485	-8.086	-17.859	C.3	1	LIG501	0.000	
5	   C	50.535	-7.869	-19.032	C.2	1	LIG501	0.000	
6	   C	48.745	-7.310	-20.253	C.2	1	LIG501	0.000	
7	   C	49.208	-7.312	-18.950	C.2	1	LIG501	0.000	
8	   C	48.388	-6.821	-17.907	C.2	1	LIG501	0.000	
9	   C	47.109	-6.339	-18.198	C.2	1	LIG501	0.000	
10	   C	47.145	-7.269	-14.805	C.3	1	LIG501	0.000	
11	   C	46.582	-7.363	-13.390	C.3	1	LIG501	0.000	
12	   C	45.688	-8.592	-13.237	C.3	1	LIG501	0.000	
13	   C	46.204	-9.538	-12.157	C.3	1	LIG501	0.000	
14	   C	46.640	-6.339	-19.520	C.2	1	LIG501	0.000	
15	   C	47.447	-6.821	-20.544	C.2	1	LIG501	0.000	
16	   O	45.823	-4.891	-14.748	O.2	1	LIG501	0.000	
17	   O	47.962	-4.764	-15.495	O.2	1	LIG501	0.000	
18	   F	45.395	-10.631	-12.058	 F	1	LIG501	0.000	
19	   S	46.791	-5.643	-15.542	S.O2	1	LIG501	0.000	
20	   H	52.364	-7.454	-17.983	 H	1	LIG501	0.000	
21	   H	50.980	-7.827	-16.929	 H	1	LIG501	0.000	
22	   H	51.791	-9.132	-17.828	 H	1	LIG501	0.000	
23	   H	49.652	-7.945	-22.030	 H	1	LIG501	0.000	
24	   H	48.753	-6.819	-16.880	 H	1	LIG501	0.000	
25	   H	45.294	-5.577	-17.376	 H	1	LIG501	0.000	
26	   H	48.226	-7.400	-14.757	 H	1	LIG501	0.000	
27	   H	46.693	-8.046	-15.421	 H	1	LIG501	0.000	
28	   H	45.984	-6.473	-13.195	 H	1	LIG501	0.000	
29	   H	47.407	-7.431	-12.681	 H	1	LIG501	0.000	
30	   H	45.687	-9.130	-14.185	 H	1	LIG501	0.000	
31	   H	44.682	-8.267	-12.971	 H	1	LIG501	0.000	
32	   H	46.210	-9.014	-11.201	 H	1	LIG501	0.000	
33	   H	47.214	-9.859	-12.412	 H	1	LIG501	0.000	
34	   H	45.643	-5.961	-19.744	 H	1	LIG501	0.000	
35	   H	47.081	-6.823	-21.571	 H	1	LIG501	0.000	
@<TRIPOS>BOND
1 1 2 ar
2 1 5 ar
3 2 6 ar
4 2 23 1
5 3 9 1
6 3 19 1
7 3 25 1
8 4 5 1
9 4 20 1
10 4 21 1
11 4 22 1
12 5 7 ar
13 6 7 ar
14 6 15 ar
15 7 8 ar
16 8 9 ar
17 8 24 1
18 9 14 ar
19 10 11 1
20 10 19 1
21 10 26 1
22 10 27 1
23 11 12 1
24 11 28 1
25 11 29 1
26 12 13 1
27 12 30 1
28 12 31 1
29 13 18 1
30 13 32 1
31 13 33 1
32 14 15 ar
33 14 34 1
34 15 35 1
35 16 19 2
36 17 19 2
@<TRIPOS>SUBSTRUCTURE
1	LIG501	1	GROUP	1 A	LIG
