# created with PyMOL 3.0.0
@<TRIPOS>MOLECULE
ligB
38 39 1                 
SMALL
USER_CHARGES
@<TRIPOS>ATOM
1	   N	50.592	-8.547	-20.295	N.2	1	LIG501	0.000	
2	   N	49.541	-7.994	-20.984	N.2	1	LIG501	0.000	
3	   N	46.692	-5.260	-17.198	N.pl3	1	LIG501	0.000	
4	   C	51.224	-8.418	-17.803	C.3	1	LIG501	0.000	
5	   C	50.362	-8.108	-18.993	C.2	1	LIG501	0.000	
6	   C	48.721	-7.270	-20.191	C.2	1	LIG501	0.000	
7	   C	49.193	-7.310	-18.920	C.2	1	LIG501	0.000	
8	   C	48.562	-6.656	-17.871	C.2	1	LIG501	0.000	
9	   C	47.390	-5.939	-18.165	C.2	1	LIG501	0.000	
10	   C	46.404	-7.177	-15.211	C.3	1	LIG501	0.000	
11	   C	46.400	-7.488	-13.702	C.3	1	LIG501	0.000	
12	   C	46.105	-8.980	-13.447	C.3	1	LIG501	0.000	
13	   C	46.101	-9.300	-11.938	C.3	1	LIG501	0.000	
14	   C	46.910	-5.893	-19.487	C.2	1	LIG501	0.000	
15	   C	47.573	-6.564	-20.521	C.2	1	LIG501	0.000	
16	   C	45.806	-10.789	-11.682	C.3	1	LIG501	0.000	
17	   O	45.663	-4.698	-14.964	O.2	1	LIG501	0.000	
18	   O	48.081	-5.168	-15.042	O.2	1	LIG501	0.000	
19	   S	46.754	-5.456	-15.508	S.O2	1	LIG501	0.000	
20	   H	51.616	-7.500	-17.360	 H	1	LIG501	0.000	
21	   H	50.653	-8.948	-17.038	 H	1	LIG501	0.000	
22	   H	52.072	-9.045	-18.086	 H	1	LIG501	0.000	
23	   H	49.444	-8.143	-21.980	 H	1	LIG501	0.000	
24	   H	48.976	-6.703	-16.869	 H	1	LIG501	0.000	
25	   H	45.847	-4.773	-17.476	 H	1	LIG501	0.000	
26	   H	47.170	-7.774	-15.712	 H	1	LIG501	0.000	
27	   H	45.426	-7.402	-15.645	 H	1	LIG501	0.000	
28	   H	45.645	-6.874	-13.204	 H	1	LIG501	0.000	
29	   H	47.372	-7.229	-13.274	 H	1	LIG501	0.000	
30	   H	46.860	-9.591	-13.948	 H	1	LIG501	0.000	
31	   H	45.133	-9.237	-13.877	 H	1	LIG501	0.000	
32	   H	45.345	-8.692	-11.433	 H	1	LIG501	0.000	
33	   H	47.071	-9.046	-11.504	 H	1	LIG501	0.000	
34	   H	46.007	-5.331	-19.716	 H	1	LIG501	0.000	
35	   H	47.202	-6.531	-21.542	 H	1	LIG501	0.000	
36	   H	44.827	-11.064	-12.082	 H	1	LIG501	0.000	
37	   H	45.808	-10.995	-10.609	 H	1	LIG501	0.000	
38	   H	46.564	-11.419	-12.153	 H	1	LIG501	0.000	
@<TRIPOS>BOND
1 1 2 ar
2 1 5 ar
3 2 6 ar
4 2 23 1
5 3 9 1
6 3 19 1
7 3 25 1
8 4 5 1
9 4 20 1
10 4 21 1
11 4 22 1
12 5 7 ar
13 6 7 ar
14 6 15 ar
15 7 8 ar
16 8 9 ar
17 8 24 1
18 9 14 ar
19 10 11 1
20 10 19 1
21 10 26 1
22 10 27 1
23 11 12 1
24 11 28 1
25 11 29 1
26 12 13 1
27 12 30 1
28 12 31 1
29 13 16 1
30 13 32 1
31 13 33 1
32 14 15 ar
33 14 34 1
34 15 35 1
35 16 36 1
36 16 37 1
37 16 38 1
38 17 19 2
39 18 19 2
@<TRIPOS>SUBSTRUCTURE
1	LIG501	1	GROUP	1 A	LIG
